Circuit: * C:\Users\kakar\OneDrive\Documentos\Draft1.asc

Error on line 2 : c1 vin 0 10 uf
	 Unknown parameter "uf"
Error on line 3 : c2 n001 0 10 uf
	 Unknown parameter "uf"
Direct Newton iteration failed to find .op point.  (Use ".option noopiter" to skip.)
Starting Gmin stepping
Gmin = 10
Gmin = 1.07374
Gmin = 0.115292
Gmin = 0.0123794
Gmin = 0.00132923
Gmin = 0.000142725
Gmin = 1.5325e-005
Gmin = 1.6455e-006
Gmin = 1.76685e-007
Gmin = 1.89714e-008
Gmin = 2.03704e-009
Gmin = 2.18725e-010
Gmin = 2.34854e-011
Gmin = 2.52173e-012
Gmin = 2.70769e-013
Gmin = 0
Gmin stepping succeeded in finding the operating point.


Date: Thu Mar 26 14:58:52 2026
Total elapsed time: 0.132 seconds.

tnom = 27
temp = 27
method = modified trap
totiter = 2516
traniter = 2088
tranpoints = 1045
accept = 1045
rejected = 0
matrix size = 7
fillins = 0
solver = Normal
Matrix Compiler1:      24 opcodes  0.3/[0.1]/0.2
Matrix Compiler2: 623 bytes object code size  0.2/0.3/[0.2]

